/*--------------------------------*- C++ -*----------------------------------*\
| =========                 |                                                 |
| \\      /  F ield         | OpenFOAM: The Open Source CFD Toolbox           |
|  \\    /   O peration     | Version:  v1912                                 |
|   \\  /    A nd           | Website:  www.openfoam.com                      |
|    \\/     M anipulation  |                                                 |
\*---------------------------------------------------------------------------*/
FoamFile
{
    version     2.0;
    format      ascii;
    class       volScalarField;
    location    "0";
    object      cellWidth;
}
// * * * * * * * * * * * * * * * * * * * * * * * * * * * * * * * * * * * * * //

dimensions      [0 1 0 0 0 0 0];

internalField   uniform 0;

boundaryField
{
    Wall
    {
        type            zeroGradient;
    }
	Atmosphere
    {
		type            zeroGradient;
    }

	frontAndBackPlanes_pos
    {
        type            wedge;
    }
    frontAndBackPlanes_neg
    {
        type            wedge;
    }
	center
    {
        type            empty;
    }
}

// ************************************************************************* //
