/*--------------------------------*- C++ -*----------------------------------*\
| =========                 |                                                 |
| \\      /  F ield         | OpenFOAM: The Open Source CFD Toolbox           |
|  \\    /   O peration     | Version:  v1806                                 |
|   \\  /    A nd           | Web:      www.OpenFOAM.com                      |
|    \\/     M anipulation  |                                                 |
\*---------------------------------------------------------------------------*/
FoamFile
{
    version     2.0;
    format      ascii;
    class       volScalarField;
	location    "0";
    object      p_rgh;
}
// * * * * * * * * * * * * * * * * * * * * * * * * * * * * * * * * * * * * * //

dimensions      [1 -1 -2 0 0 0 0];

internalField   uniform 0;

boundaryField
{
   Wall
    {
        type            fixedFluxPressure;
        value           uniform 0;
    }

    Atmosphere
    {
        type            totalPressure;
        p0              uniform 0;
    }

	frontAndBackPlanes_pos
    {
        type            wedge;
    }
    frontAndBackPlanes_neg
    {
        type            wedge;
    }
	center
    {
        type            empty;
    }
}

// ************************************************************************* //
