/*--------------------------------*- C++ -*----------------------------------*\
| =========                 |                                                 |
| \\      /  F ield         | OpenFOAM: The Open Source CFD Toolbox           |
|  \\    /   O peration     | Version:  2.3.0                                 |
|   \\  /    A nd           | Web:      www.OpenFOAM.org                      |
|    \\/     M anipulation  |                                                 |
\*---------------------------------------------------------------------------*/
FoamFile
{
    version     2.0;
    format      ascii;
    class       volScalarField;
    object      psi;
}
// * * * * * * * * * * * * * * * * * * * * * * * * * * * * * * * * * * * * * //

dimensions      [0 1 0 0 0 0 0];

internalField   uniform 0;

boundaryField
{
    Wall
    {
		type        fixedValue;
		value       uniform 0;
    }

    Atmosphere
    {
        type            zeroGradient;
    }
	
	frontAndBackPlanes_pos
    {
        type            wedge;
    }
    frontAndBackPlanes_neg
    {
        type            wedge;
    }

    defaultFaces
    {
        type            empty;
    }
}

// ************************************************************************* //
